 &time_control
 run_days                            = 0,
 run_hours                           = 10,
 run_minutes                         = 0,
 run_seconds                         = 0,
 start_year                          = 2016, 2016, 2016, 2016,
 start_month                         = 07,   07,   07,   07,
 start_day                           = 19,   19,   19,   19,
 start_hour                          = 04,   04,   04,   04,
 start_minute                        = 30,   30,   30,   30,
 start_second                        = 00,   00,   00,   00,
 end_year                            = 2016, 2016, 2016, 2016,
 end_month                           = 07,   07,   07,   07,
 end_day                             = 19,   19,   19,   19,
 end_hour                            = 18,   18,   18,   18,
 end_minute                          = 00,   00,   00,   00,
 end_second                          = 00,   00,   00,   00,
 interval_seconds                    = 21600
 input_from_file                     = .true.,.true.,.true.,.true., 
 history_interval_m                  = 180,  180,  180, 15,
 history_interval_s                  = 0,   0,   0,   0, 
 frames_per_outfile                  = 1, 1, 1, 1,
 restart                             = .true.,
 restart_interval                    = 30,
 override_restart_timers             = .true.,
 io_form_history                     = 2
 io_form_restart                     = 2
 io_form_input                       = 2
 io_form_boundary                    = 2
 debug_level                         = 1
! iofields_filename = "myoutfields.txt",
 ignore_iofields_warning = .true., 
 /

 &domains
 time_step                           = 1,
 time_step_fract_num                 = 1,
 time_step_fract_den                 = 1,
 max_dom                             = 4,
 e_we                                = 202,    202,   271,   401,
 e_sn                                = 202,    202,   241,   401,
 e_vert                              = 80,    80,   80,   80,
  eta_levels(1:80) = 1.00000, 0.99739, 0.99477, 0.99216, 0.98954, 0.98689, 0.98421, 0.98147,
0.97866, 0.97576, 0.97276, 0.96963, 0.96636, 0.96293, 0.95933, 0.95554,
0.95155, 0.94735, 0.94291, 0.93823, 0.93329, 0.92808, 0.92259, 0.91680,
0.91069, 0.90427, 0.89750, 0.89037, 0.88287, 0.87498, 0.86668, 0.85797,
0.84881, 0.83920, 0.82912, 0.81855, 0.80748, 0.79588, 0.78375, 0.77107,
0.75782, 0.74400, 0.72958, 0.71457, 0.69894, 0.68270, 0.66585, 0.64837,
0.63027, 0.61155, 0.59223, 0.57231, 0.55181, 0.53076, 0.50916, 0.48707,
0.46451, 0.44152, 0.41815, 0.39447, 0.37053, 0.34640, 0.32216, 0.29790,
0.27373, 0.24976, 0.22610, 0.20290, 0.18029, 0.15842, 0.13742, 0.11743,
0.09853, 0.08083, 0.06436, 0.04915, 0.03516, 0.02236, 0.01067, 0.00000,
 eta_levels(81:160) = 1.00000, 0.99739, 0.99477, 0.99216, 0.98954, 0.98689, 0.98421, 0.98147,
0.97866, 0.97576, 0.97276, 0.96963, 0.96636, 0.96293, 0.95933, 0.95554,
0.95155, 0.94735, 0.94291, 0.93823, 0.93329, 0.92808, 0.92259, 0.91680,
0.91069, 0.90427, 0.89750, 0.89037, 0.88287, 0.87498, 0.86668, 0.85797,
0.84881, 0.83920, 0.82912, 0.81855, 0.80748, 0.79588, 0.78375, 0.77107,
0.75782, 0.74400, 0.72958, 0.71457, 0.69894, 0.68270, 0.66585, 0.64837,
0.63027, 0.61155, 0.59223, 0.57231, 0.55181, 0.53076, 0.50916, 0.48707,
0.46451, 0.44152, 0.41815, 0.39447, 0.37053, 0.34640, 0.32216, 0.29790,
0.27373, 0.24976, 0.22610, 0.20290, 0.18029, 0.15842, 0.13742, 0.11743,
0.09853, 0.08083, 0.06436, 0.04915, 0.03516, 0.02236, 0.01067, 0.00000,
 eta_levels(161:240) = 1.00000, 0.99739, 0.99477, 0.99216, 0.98954, 0.98689, 0.98421, 0.98147,
0.97866, 0.97576, 0.97276, 0.96963, 0.96636, 0.96293, 0.95933, 0.95554,
0.95155, 0.94735, 0.94291, 0.93823, 0.93329, 0.92808, 0.92259, 0.91680,
0.91069, 0.90427, 0.89750, 0.89037, 0.88287, 0.87498, 0.86668, 0.85797,
0.84881, 0.83920, 0.82912, 0.81855, 0.80748, 0.79588, 0.78375, 0.77107,
0.75782, 0.74400, 0.72958, 0.71457, 0.69894, 0.68270, 0.66585, 0.64837,
0.63027, 0.61155, 0.59223, 0.57231, 0.55181, 0.53076, 0.50916, 0.48707,
0.46451, 0.44152, 0.41815, 0.39447, 0.37053, 0.34640, 0.32216, 0.29790,
0.27373, 0.24976, 0.22610, 0.20290, 0.18029, 0.15842, 0.13742, 0.11743,
0.09853, 0.08083, 0.06436, 0.04915, 0.03516, 0.02236, 0.01067, 0.00000,
 eta_levels(241:320) = 1.00000, 0.99739, 0.99477, 0.99216, 0.98954, 0.98689, 0.98421, 0.98147,
0.97866, 0.97576, 0.97276, 0.96963, 0.96636, 0.96293, 0.95933, 0.95554,
0.95155, 0.94735, 0.94291, 0.93823, 0.93329, 0.92808, 0.92259, 0.91680,
0.91069, 0.90427, 0.89750, 0.89037, 0.88287, 0.87498, 0.86668, 0.85797,
0.84881, 0.83920, 0.82912, 0.81855, 0.80748, 0.79588, 0.78375, 0.77107,
0.75782, 0.74400, 0.72958, 0.71457, 0.69894, 0.68270, 0.66585, 0.64837,
0.63027, 0.61155, 0.59223, 0.57231, 0.55181, 0.53076, 0.50916, 0.48707,
0.46451, 0.44152, 0.41815, 0.39447, 0.37053, 0.34640, 0.32216, 0.29790,
0.27373, 0.24976, 0.22610, 0.20290, 0.18029, 0.15842, 0.13742, 0.11743,
0.09853, 0.08083, 0.06436, 0.04915, 0.03516, 0.02236, 0.01067, 0.00000,
 vert_refine_method = 0, 2, 2, 2,
 p_top_requested                     = 10000,
 num_metgrid_levels                  = 38,
 num_metgrid_soil_levels             = 4,
 dx                                  = 8100,  2700,  900, 90,   
 dy                                  = 8100,  2700,  900, 90,
 grid_id                             = 1,     2,     3,   4, 
 parent_id                           = 0,     1,     2,   3,
 i_parent_start                      = 1,     77,    56,  140,   
 j_parent_start                      = 1,     48,    73,  134,
 parent_grid_ratio                   = 1,     3,     3,   10,
 parent_time_step_ratio              = 1,     3,     3,    5,
 feedback                            = 0,
 smooth_option                       = 0
 max_ts_locs                         = 22
 ts_buf_size                         = 4000 
 max_ts_level                        = 40   
 /

 &physics
 mp_physics                          = 3,     3,     3,     3,
 ra_lw_physics                       = 1,     1,     1,     1,
 ra_sw_physics                       = 1,     1,     1,    1,
 radt                                = 30,    30,    30,   30,
 sf_sfclay_physics                   = 1,     1,     1,    1,
 sf_surface_physics                  = 4,     4,     4,    4,
 bl_pbl_physics                      = 1,     1,     1,    0,
 bldt                                = 0,     0,     0,    0,
 cu_physics                          = 1,     1,     1,    0,
 cudt                                = 5,     5,     5,    0,
 isfflx                              = 1,
 ifsnow                              = 1,
 icloud                              = 1,
 surface_input_source                = 1,
 num_soil_layers                     = 4,
 num_land_cat                        = 33,
 sf_urban_physics                    = 0,     0,     0,      0, 
 topo_wind                           = 1,     1,     1,      0,
 topo_shading                        = 0,     1,     1,      1,
 slope_rad                           = 0,     1,     1,      1,
 /

 &fdda
 /

 &dynamics
 w_damping                           = 1,
 diff_opt                            = 2,      2,      2,     2,
 km_opt                              = 4,      4,      4,     2,
 c_s                                 = 0.25,  0.25,  0.25,  0.2,
 c_k                                 = 0.1,   0.1,   0.1,   0.1,
 diff_6th_opt                        = 0,      0,      0,     2,
 diff_6th_factor                     = 0.12,   0.12,   0.12,   0.12,
 base_temp                           = 290.
 damp_opt                            = 3,
 zdamp                               = 10000.,  10000.,  10000.,  10000.,
 dampcoef                            = 0.2,    0.2,    0.2,    0.2,
 khdif                               = 0,      0,      0,     0,
 kvdif                               = 0,      0,      0,     0,
 smdiv                               = 0.1,    0.1,    0.1,   0.1,
 v_mom_adv_order                     = 3,      3,      3,     3,
 non_hydrostatic                     = .true., .true., .true., .true.,
 moist_adv_opt                       = 1,      1,      1,     1,
 scalar_adv_opt                      = 1,      1,      1,     1,
 epssm                               = 0.2,    0.2,    0.6,    1.0,
 time_step_sound                     = 10   
 cell_pert                           = .false.,.false.,.false.,.true.,
 cell_pert_2d                        = .false.,.false.,.false.,.false.,
 cell_tvcp                           = .false.,.false.,.false.,.false.,
 cell_pert_amp                       = 0,    0,      0,    1.125,
 pert_timestep                       = .false.,.false.,.false.,.true.,
 pert_nts                            = 0,    0,      0,   3500,
 cell_gppc                           = 0,    0,      0,      8,
 cell_nbcx                           = 0,    0,      0,      3,
 cell_nbcy                           = 0,    0,      0,      3,
 cell_zbottom                        = 0,    0,      0,      2,
 cell_ztop                           = 0,    0,      0,     25,
 cell_pert_ampRL                     = 0,    0,      0,      0,
 cellRL_ztop                         = 0,    0,      0,      0,
 cellRL_zbottom                      = 0,    0,      0,      0,
 /

 &bdy_control
 spec_bdy_width                      = 5,
 spec_zone                           = 1,
 relax_zone                          = 4,
 specified                           = .true., .false., .false., .false.,
 nested                              = .false., .true., .true., .true.,
 /

 &grib2
 /

 &namelist_quilt
 nio_tasks_per_group = 0,
 nio_groups = 1,
 /
